$ Spice netlist generated by v2lvs
$ v2019.1_18.11    Thu Jan 10 13:52:35 PST 2019
.INCLUDE "./stdcells.spi" 
*.BUSDELIMITER [ 

.SUBCKT digital_top rst rst_prbs inj_error ref_clk_ext_p ref_clk_ext_n 
+ CTL_BUF_N[5] CTL_BUF_N[4] CTL_BUF_N[3] CTL_BUF_N[2] CTL_BUF_N[1] CTL_BUF_N[0] 
+ CTL_BUF_P[5] CTL_BUF_P[4] CTL_BUF_P[3] CTL_BUF_P[2] CTL_BUF_P[1] CTL_BUF_P[0] 
+ osc_en aux_osc_en inj_en fftl_en con_perb[3] con_perb[2] con_perb[1] 
+ con_perb[0] div_ratio_half[5] div_ratio_half[4] div_ratio_half[3] 
+ div_ratio_half[2] div_ratio_half[1] div_ratio_half[0] 
+ fine_control_avg_window_select[4] fine_control_avg_window_select[3] 
+ fine_control_avg_window_select[2] fine_control_avg_window_select[1] 
+ fine_control_avg_window_select[0] fine_con_step_size[3] fine_con_step_size[2] 
+ fine_con_step_size[1] fine_con_step_size[0] manual_control_osc[12] 
+ manual_control_osc[11] manual_control_osc[10] manual_control_osc[9] 
+ manual_control_osc[8] manual_control_osc[7] manual_control_osc[6] 
+ manual_control_osc[5] manual_control_osc[4] manual_control_osc[3] 
+ manual_control_osc[2] manual_control_osc[1] manual_control_osc[0] pi1_con[3] 
+ pi1_con[2] pi1_con[1] pi1_con[0] pi2_con[3] pi2_con[2] pi2_con[1] pi2_con[0] 
+ pi3_con[3] pi3_con[2] pi3_con[1] pi3_con[0] pi4_con[3] pi4_con[2] pi4_con[1] 
+ pi4_con[0] pi5_con[3] pi5_con[2] pi5_con[1] pi5_con[0] test_mux_select[3] 
+ test_mux_select[2] test_mux_select[1] test_mux_select[0] 
+ test_mux_clk_I_select[1] test_mux_clk_I_select[0] test_mux_clk_Q_select[1] 
+ test_mux_clk_Q_select[0] dout_p dout_n test_mux_misc test_mux_clk_Q 
+ test_mux_clk_I DVSS DVDD AVDD 
XDIODE_1 din_reorder[1] DVSS DVSS DVDD DVDD sky130_fd_sc_hs__diode_2 
XFE_OFC376_N485 N485 DVSS DVSS DVDD DVDD FE_OFN376_N485 
+ sky130_fd_sc_hs__clkbuf_2 
XFE_OFC43_N284 N284 DVSS DVSS DVDD DVDD FE_OFN43_N284 sky130_fd_sc_hs__buf_2 
XFE_OFC42_N452 N452 DVSS DVSS DVDD DVDD FE_OFN42_N452 sky130_fd_sc_hs__buf_2 
XFE_OFC41_N279 N279 DVSS DVSS DVDD DVDD FE_OFN41_N279 sky130_fd_sc_hs__buf_2 
XFE_OFC40_N449 N449 DVSS DVSS DVDD DVDD FE_OFN40_N449 sky130_fd_sc_hs__buf_2 
XFE_OFC39_N273 N273 DVSS DVSS DVDD DVDD FE_OFN39_N273 sky130_fd_sc_hs__buf_2 
XFE_OFC38_N259 N259 DVSS DVSS DVDD DVDD FE_OFN38_N259 sky130_fd_sc_hs__buf_2 
XFE_OFC37_N271 N271 DVSS DVSS DVDD DVDD FE_OFN37_N271 sky130_fd_sc_hs__buf_2 
XFE_OFC36_N446 N446 DVSS DVSS DVDD DVDD FE_OFN36_N446 sky130_fd_sc_hs__buf_2 
XFE_OFC35_N263 N263 DVSS DVSS DVDD DVDD FE_OFN35_N263 sky130_fd_sc_hs__buf_2 
XFE_OFC34_manual_control_osc_3 manual_control_osc[3] DVSS DVSS DVDD DVDD 
+ FE_OFN34_manual_control_osc_3 sky130_fd_sc_hs__buf_2 
XFE_OFC33_N457 N457 DVSS DVSS DVDD DVDD FE_OFN33_N457 sky130_fd_sc_hs__buf_2 
XFE_OFC32_N281 N281 DVSS DVSS DVDD DVDD FE_OFN32_N281 sky130_fd_sc_hs__buf_2 
XFE_OFC31_pi3_con_1 pi3_con[1] DVSS DVSS DVDD DVDD FE_OFN31_pi3_con_1 
+ sky130_fd_sc_hs__clkbuf_4 
XFE_OFC30_N459 N459 DVSS DVSS DVDD DVDD FE_OFN30_N459 sky130_fd_sc_hs__buf_2 
XFE_OFC29_N286 N286 DVSS DVSS DVDD DVDD FE_OFN29_N286 sky130_fd_sc_hs__buf_2 
XFE_OFC28_N255 N255 DVSS DVSS DVDD DVDD FE_OFN28_N255 sky130_fd_sc_hs__buf_2 
XFE_OFC27_N253 N253 DVSS DVSS DVDD DVDD FE_OFN27_N253 sky130_fd_sc_hs__buf_2 
XFE_OFC26_N463 N463 DVSS DVSS DVDD DVDD FE_OFN26_N463 sky130_fd_sc_hs__buf_2 
XFE_OFC25_N453 N453 DVSS DVSS DVDD DVDD FE_OFN25_N453 sky130_fd_sc_hs__buf_2 
XFE_OFC24_pi1_con_0 pi1_con[0] DVSS DVSS DVDD DVDD FE_OFN24_pi1_con_0 
+ sky130_fd_sc_hs__clkbuf_4 
XFE_OFC23_CTL_P_30 CTL_P[30] DVSS DVSS DVDD DVDD FE_OFN23_CTL_P_30 
+ sky130_fd_sc_hs__buf_2 
XFE_OFC22_N276 N276 DVSS DVSS DVDD DVDD FE_OFN22_N276 sky130_fd_sc_hs__buf_2 
XFE_OFC21_N274 N274 DVSS DVSS DVDD DVDD FE_OFN21_N274 sky130_fd_sc_hs__buf_2 
XFE_OFC20_N280 N280 DVSS DVSS DVDD DVDD FE_OFN20_N280 sky130_fd_sc_hs__buf_2 
XFE_OFC19_N470 N470 DVSS DVSS DVDD DVDD FE_OFN19_N470 sky130_fd_sc_hs__buf_2 
XFE_OFC18_N260 N260 DVSS DVSS DVDD DVDD FE_OFN18_N260 sky130_fd_sc_hs__buf_2 
XFE_OFC17_N277 N277 DVSS DVSS DVDD DVDD FE_OFN17_N277 sky130_fd_sc_hs__buf_2 
XFE_OFC16_N288 N288 DVSS DVSS DVDD DVDD FE_OFN16_N288 sky130_fd_sc_hs__buf_2 
XFE_OFC15_ck_Q ck_Q DVSS DVSS DVDD DVDD FE_OFN15_ck_Q sky130_fd_sc_hs__clkbuf_4 
XFE_OFC14_N485 FE_OFN376_N485 DVSS DVSS DVDD DVDD FE_OFN14_N485 
+ sky130_fd_sc_hs__buf_2 
XFE_RC_13_0 FE_OFN40_N449 DVSS DVSS DVDD DVDD FE_OFN257_N449 
+ sky130_fd_sc_hs__clkbuf_4 
XFE_RC_12_0 N455 DVSS DVSS DVDD DVDD FE_OFN351_N455 sky130_fd_sc_hs__buf_2 
XFE_RC_11_0 FE_OFN33_N457 DVSS DVSS DVDD DVDD FE_OFN248_N457 
+ sky130_fd_sc_hs__buf_2 
XFE_RC_10_1 FE_OFN25_N453 DVSS DVSS DVDD DVDD n2650 sky130_fd_sc_hs__inv_4 
XFE_RC_8_1 FE_OFN37_N271 DVSS DVSS DVDD DVDD FE_OFN286_N271 
+ sky130_fd_sc_hs__buf_2 
XFE_RC_7_1 N469 DVSS DVSS DVDD DVDD n135 sky130_fd_sc_hs__inv_4 
XFE_RC_6_1 FE_OFN41_N279 DVSS DVSS DVDD DVDD FE_OFN228_N279 
+ sky130_fd_sc_hs__buf_2 
XFE_RC_5_1 N285 DVSS DVSS DVDD DVDD FE_OFN206_N285 sky130_fd_sc_hs__buf_2 
XFE_RC_4_0 FE_OFN29_N286 DVSS DVSS DVDD DVDD FE_OFN362_N286 
+ sky130_fd_sc_hs__buf_2 
XFE_RC_3_0 FE_OFN14_N485 DVSS DVSS DVDD DVDD FE_OFN201_N485 
+ sky130_fd_sc_hs__clkbuf_4 
XFE_RC_0_0 FE_OFN269_FE_MDBN0 DVSS DVSS DVDD DVDD test_mux_clk_Q 
+ sky130_fd_sc_hs__inv_4 
XFE_OFC9_CTL_N_10 CTL_N[10] DVSS DVSS DVDD DVDD FE_OFN9_CTL_N_10 
+ sky130_fd_sc_hs__buf_2 
XFE_OFC8_N263 FE_OFN35_N263 DVSS DVSS DVDD DVDD FE_OFN8_N263 
+ sky130_fd_sc_hs__buf_2 
XFE_OFC7_manual_control_osc_1 manual_control_osc[1] DVSS DVSS DVDD DVDD 
+ FE_OFN7_manual_control_osc_1 sky130_fd_sc_hs__buf_2 
XFE_OFC5_N466 N466 DVSS DVSS DVDD DVDD FE_OFN5_N466 sky130_fd_sc_hs__buf_2 
XFE_OFC0_N261 N261 DVSS DVSS DVDD DVDD FE_OFN0_N261 sky130_fd_sc_hs__buf_2 
XFE_OFC374_ck_I FE_OFN371_ck_I DVSS DVSS DVDD DVDD FE_OFN374_ck_I 
+ sky130_fd_sc_hs__buf_4 
XFE_OFC373_ck_I FE_OFN372_ck_I DVSS DVSS DVDD DVDD FE_OFN373_ck_I 
+ sky130_fd_sc_hs__clkbuf_16 
XFE_OFC372_ck_I ck_I DVSS DVSS DVDD DVDD FE_OFN372_ck_I sky130_fd_sc_hs__buf_1 
XFE_OFC371_ck_I ck_I DVSS DVSS DVDD DVDD FE_OFN371_ck_I 
+ sky130_fd_sc_hs__clkbuf_2 
XCTS_ccl_a_buf_00003 ref_clk_ext_p DVSS DVSS DVDD DVDD CTS_1 
+ sky130_fd_sc_hs__clkbuf_16 
XLTIE_136 DVSS DVSS DVDD DVDD 1000 LTIE_136_LONET sky130_fd_sc_hs__conb_1 
XLTIE_135 DVSS DVSS DVDD DVDD LTIE_135_HINET LTIE_135_LONET 
+ sky130_fd_sc_hs__conb_1 
XLTIE_134 DVSS DVSS DVDD DVDD 1001 LTIE_134_LONET sky130_fd_sc_hs__conb_1 
XLTIE_133 DVSS DVSS DVDD DVDD LTIE_133_HINET LTIE_133_LONET 
+ sky130_fd_sc_hs__conb_1 
XLTIE_132 DVSS DVSS DVDD DVDD 1002 LTIE_132_LONET sky130_fd_sc_hs__conb_1 
XLTIE_131 DVSS DVSS DVDD DVDD 1003 LTIE_131_LONET sky130_fd_sc_hs__conb_1 
XLTIE_130 DVSS DVSS DVDD DVDD 1004 LTIE_130_LONET sky130_fd_sc_hs__conb_1 
XLTIE_129 DVSS DVSS DVDD DVDD LTIE_129_HINET LTIE_129_LONET 
+ sky130_fd_sc_hs__conb_1 
XLTIE_128 DVSS DVSS DVDD DVDD LTIE_128_HINET LTIE_128_LONET 
+ sky130_fd_sc_hs__conb_1 
XLTIE_127 DVSS DVSS DVDD DVDD LTIE_127_HINET LTIE_127_LONET 
+ sky130_fd_sc_hs__conb_1 
XLTIE_126 DVSS DVSS DVDD DVDD LTIE_126_HINET LTIE_126_LONET 
+ sky130_fd_sc_hs__conb_1 
XLTIE_125 DVSS DVSS DVDD DVDD LTIE_125_HINET LTIE_125_LONET 
+ sky130_fd_sc_hs__conb_1 
XLTIE_124 DVSS DVSS DVDD DVDD LTIE_124_HINET LTIE_124_LONET 
+ sky130_fd_sc_hs__conb_1 
XLTIE_123 DVSS DVSS DVDD DVDD 1005 LTIE_123_LONET sky130_fd_sc_hs__conb_1 
XLTIE_122 DVSS DVSS DVDD DVDD LTIE_122_HINET LTIE_122_LONET 
+ sky130_fd_sc_hs__conb_1 
XLTIE_121 DVSS DVSS DVDD DVDD LTIE_121_HINET LTIE_121_LONET 
+ sky130_fd_sc_hs__conb_1 
XLTIE_120 DVSS DVSS DVDD DVDD LTIE_120_HINET LTIE_120_LONET 
+ sky130_fd_sc_hs__conb_1 
XLTIE_119 DVSS DVSS DVDD DVDD LTIE_119_HINET LTIE_119_LONET 
+ sky130_fd_sc_hs__conb_1 
XLTIE_118 DVSS DVSS DVDD DVDD LTIE_118_HINET LTIE_118_LONET 
+ sky130_fd_sc_hs__conb_1 
XLTIE_117 DVSS DVSS DVDD DVDD LTIE_117_HINET LTIE_117_LONET 
+ sky130_fd_sc_hs__conb_1 
XLTIE_116 DVSS DVSS DVDD DVDD LTIE_116_HINET LTIE_116_LONET 
+ sky130_fd_sc_hs__conb_1 
XLTIE_115 DVSS DVSS DVDD DVDD LTIE_115_HINET LTIE_115_LONET 
+ sky130_fd_sc_hs__conb_1 
XLTIE_114 DVSS DVSS DVDD DVDD LTIE_114_HINET LTIE_114_LONET 
+ sky130_fd_sc_hs__conb_1 
XLTIE_113 DVSS DVSS DVDD DVDD LTIE_113_HINET LTIE_113_LONET 
+ sky130_fd_sc_hs__conb_1 
XLTIE_112 DVSS DVSS DVDD DVDD LTIE_112_HINET LTIE_112_LONET 
+ sky130_fd_sc_hs__conb_1 
XLTIE_111 DVSS DVSS DVDD DVDD LTIE_111_HINET LTIE_111_LONET 
+ sky130_fd_sc_hs__conb_1 
XLTIE_110 DVSS DVSS DVDD DVDD LTIE_110_HINET LTIE_110_LONET 
+ sky130_fd_sc_hs__conb_1 
XLTIE_109 DVSS DVSS DVDD DVDD 1006 LTIE_109_LONET sky130_fd_sc_hs__conb_1 
XLTIE_108 DVSS DVSS DVDD DVDD 1007 LTIE_108_LONET sky130_fd_sc_hs__conb_1 
XLTIE_107 DVSS DVSS DVDD DVDD LTIE_107_HINET LTIE_107_LONET 
+ sky130_fd_sc_hs__conb_1 
XLTIE_106 DVSS DVSS DVDD DVDD LTIE_106_HINET LTIE_106_LONET 
+ sky130_fd_sc_hs__conb_1 
XLTIE_105 DVSS DVSS DVDD DVDD LTIE_105_HINET LTIE_105_LONET 
+ sky130_fd_sc_hs__conb_1 
XLTIE_104 DVSS DVSS DVDD DVDD LTIE_104_HINET LTIE_104_LONET 
+ sky130_fd_sc_hs__conb_1 
XLTIE_103 DVSS DVSS DVDD DVDD LTIE_103_HINET LTIE_103_LONET 
+ sky130_fd_sc_hs__conb_1 
XLTIE_102 DVSS DVSS DVDD DVDD 1008 LTIE_102_LONET sky130_fd_sc_hs__conb_1 
XLTIE_101 DVSS DVSS DVDD DVDD LTIE_101_HINET LTIE_101_LONET 
+ sky130_fd_sc_hs__conb_1 
XLTIE_100 DVSS DVSS DVDD DVDD LTIE_100_HINET LTIE_100_LONET 
+ sky130_fd_sc_hs__conb_1 
XLTIE_99 DVSS DVSS DVDD DVDD LTIE_99_HINET LTIE_99_LONET 
+ sky130_fd_sc_hs__conb_1 
XLTIE_98 DVSS DVSS DVDD DVDD 1009 LTIE_98_LONET sky130_fd_sc_hs__conb_1 
XLTIE_97 DVSS DVSS DVDD DVDD LTIE_97_HINET LTIE_97_LONET 
+ sky130_fd_sc_hs__conb_1 
XLTIE_96 DVSS DVSS DVDD DVDD LTIE_96_HINET LTIE_96_LONET 
+ sky130_fd_sc_hs__conb_1 
XLTIE_95 DVSS DVSS DVDD DVDD 1010 LTIE_95_LONET sky130_fd_sc_hs__conb_1 
XLTIE_94 DVSS DVSS DVDD DVDD LTIE_94_HINET LTIE_94_LONET 
+ sky130_fd_sc_hs__conb_1 
XLTIE_93 DVSS DVSS DVDD DVDD LTIE_93_HINET LTIE_93_LONET 
+ sky130_fd_sc_hs__conb_1 
XLTIE_92 DVSS DVSS DVDD DVDD LTIE_92_HINET LTIE_92_LONET 
+ sky130_fd_sc_hs__conb_1 
XLTIE_91 DVSS DVSS DVDD DVDD LTIE_91_HINET LTIE_91_LONET 
+ sky130_fd_sc_hs__conb_1 
XLTIE_90 DVSS DVSS DVDD DVDD 1011 LTIE_90_LONET sky130_fd_sc_hs__conb_1 
XLTIE_89 DVSS DVSS DVDD DVDD 1012 LTIE_89_LONET sky130_fd_sc_hs__conb_1 
XLTIE_88 DVSS DVSS DVDD DVDD 1013 LTIE_88_LONET sky130_fd_sc_hs__conb_1 
XLTIE_87 DVSS DVSS DVDD DVDD LTIE_87_HINET LTIE_87_LONET 
+ sky130_fd_sc_hs__conb_1 
XLTIE_86 DVSS DVSS DVDD DVDD LTIE_86_HINET LTIE_86_LONET 
+ sky130_fd_sc_hs__conb_1 
XLTIE_85 DVSS DVSS DVDD DVDD 1014 LTIE_85_LONET sky130_fd_sc_hs__conb_1 
XLTIE_84 DVSS DVSS DVDD DVDD LTIE_84_HINET LTIE_84_LONET 
+ sky130_fd_sc_hs__conb_1 
XLTIE_83 DVSS DVSS DVDD DVDD LTIE_83_HINET LTIE_83_LONET 
+ sky130_fd_sc_hs__conb_1 
XLTIE_82 DVSS DVSS DVDD DVDD LTIE_82_HINET LTIE_82_LONET 
+ sky130_fd_sc_hs__conb_1 
XLTIE_81 DVSS DVSS DVDD DVDD LTIE_81_HINET LTIE_81_LONET 
+ sky130_fd_sc_hs__conb_1 
XLTIE_80 DVSS DVSS DVDD DVDD 1015 LTIE_80_LONET sky130_fd_sc_hs__conb_1 
XLTIE_79 DVSS DVSS DVDD DVDD LTIE_79_HINET 1016 sky130_fd_sc_hs__conb_1 
XLTIE_78 DVSS DVSS DVDD DVDD LTIE_78_HINET 1017 sky130_fd_sc_hs__conb_1 
XLTIE_77 DVSS DVSS DVDD DVDD LTIE_77_HINET LTIE_77_LONET 
+ sky130_fd_sc_hs__conb_1 
XLTIE_76 DVSS DVSS DVDD DVDD LTIE_76_HINET LTIE_76_LONET 
+ sky130_fd_sc_hs__conb_1 
XLTIE_75 DVSS DVSS DVDD DVDD LTIE_75_HINET 1018 sky130_fd_sc_hs__conb_1 
XLTIE_74 DVSS DVSS DVDD DVDD LTIE_74_HINET 1019 sky130_fd_sc_hs__conb_1 
XLTIE_73 DVSS DVSS DVDD DVDD 1020 LTIE_73_LONET sky130_fd_sc_hs__conb_1 
XLTIE_72 DVSS DVSS DVDD DVDD LTIE_72_HINET 1021 sky130_fd_sc_hs__conb_1 
XLTIE_71 DVSS DVSS DVDD DVDD LTIE_71_HINET LTIE_71_LONET 
+ sky130_fd_sc_hs__conb_1 
XLTIE_70 DVSS DVSS DVDD DVDD LTIE_70_HINET LTIE_70_LONET 
+ sky130_fd_sc_hs__conb_1 
XLTIE_69 DVSS DVSS DVDD DVDD LTIE_69_HINET LTIE_69_LONET 
+ sky130_fd_sc_hs__conb_1 
XLTIE_68 DVSS DVSS DVDD DVDD LTIE_68_HINET 1022 sky130_fd_sc_hs__conb_1 
XLTIE_67 DVSS DVSS DVDD DVDD LTIE_67_HINET 1023 sky130_fd_sc_hs__conb_1 
XLTIE_66 DVSS DVSS DVDD DVDD LTIE_66_HINET 1024 sky130_fd_sc_hs__conb_1 
XLTIE_65 DVSS DVSS DVDD DVDD LTIE_65_HINET LTIE_65_LONET 
+ sky130_fd_sc_hs__conb_1 
XLTIE_64 DVSS DVSS DVDD DVDD 1025 LTIE_64_LONET sky130_fd_sc_hs__conb_1 
XLTIE_63 DVSS DVSS DVDD DVDD LTIE_63_HINET LTIE_63_LONET 
+ sky130_fd_sc_hs__conb_1 
XLTIE_62 DVSS DVSS DVDD DVDD LTIE_62_HINET 1026 sky130_fd_sc_hs__conb_1 
XLTIE_61 DVSS DVSS DVDD DVDD LTIE_61_HINET LTIE_61_LONET 
+ sky130_fd_sc_hs__conb_1 
XLTIE_60 DVSS DVSS DVDD DVDD LTIE_60_HINET 1027 sky130_fd_sc_hs__conb_1 
XLTIE_59 DVSS DVSS DVDD DVDD LTIE_59_HINET 1028 sky130_fd_sc_hs__conb_1 
XLTIE_58 DVSS DVSS DVDD DVDD LTIE_58_HINET 1029 sky130_fd_sc_hs__conb_1 
XLTIE_57 DVSS DVSS DVDD DVDD 1030 LTIE_57_LONET sky130_fd_sc_hs__conb_1 
XLTIE_56 DVSS DVSS DVDD DVDD LTIE_56_HINET LTIE_56_LONET 
+ sky130_fd_sc_hs__conb_1 
XLTIE_55 DVSS DVSS DVDD DVDD LTIE_55_HINET LTIE_55_LONET 
+ sky130_fd_sc_hs__conb_1 
XLTIE_54 DVSS DVSS DVDD DVDD LTIE_54_HINET LTIE_54_LONET 
+ sky130_fd_sc_hs__conb_1 
XLTIE_53 DVSS DVSS DVDD DVDD LTIE_53_HINET LTIE_53_LONET 
+ sky130_fd_sc_hs__conb_1 
XLTIE_52 DVSS DVSS DVDD DVDD 1031 LTIE_52_LONET sky130_fd_sc_hs__conb_1 
XLTIE_51 DVSS DVSS DVDD DVDD LTIE_51_HINET LTIE_51_LONET 
+ sky130_fd_sc_hs__conb_1 
XLTIE_50 DVSS DVSS DVDD DVDD LTIE_50_HINET LTIE_50_LONET 
+ sky130_fd_sc_hs__conb_1 
XLTIE_49 DVSS DVSS DVDD DVDD 1032 LTIE_49_LONET sky130_fd_sc_hs__conb_1 
XLTIE_48 DVSS DVSS DVDD DVDD 1033 LTIE_48_LONET sky130_fd_sc_hs__conb_1 
XLTIE_47 DVSS DVSS DVDD DVDD LTIE_47_HINET LTIE_47_LONET 
+ sky130_fd_sc_hs__conb_1 
XLTIE_46 DVSS DVSS DVDD DVDD LTIE_46_HINET LTIE_46_LONET 
+ sky130_fd_sc_hs__conb_1 
XLTIE_45 DVSS DVSS DVDD DVDD LTIE_45_HINET LTIE_45_LONET 
+ sky130_fd_sc_hs__conb_1 
XLTIE_44 DVSS DVSS DVDD DVDD 1034 LTIE_44_LONET sky130_fd_sc_hs__conb_1 
XLTIE_43 DVSS DVSS DVDD DVDD LTIE_43_HINET LTIE_43_LONET 
+ sky130_fd_sc_hs__conb_1 
XLTIE_42 DVSS DVSS DVDD DVDD 1035 LTIE_42_LONET sky130_fd_sc_hs__conb_1 
XLTIE_41 DVSS DVSS DVDD DVDD LTIE_41_HINET LTIE_41_LONET 
+ sky130_fd_sc_hs__conb_1 
XLTIE_40 DVSS DVSS DVDD DVDD 1036 LTIE_40_LONET sky130_fd_sc_hs__conb_1 
XLTIE_39 DVSS DVSS DVDD DVDD LTIE_39_HINET LTIE_39_LONET 
+ sky130_fd_sc_hs__conb_1 
XLTIE_38 DVSS DVSS DVDD DVDD 1037 LTIE_38_LONET sky130_fd_sc_hs__conb_1 
XLTIE_37 DVSS DVSS DVDD DVDD LTIE_37_HINET LTIE_37_LONET 
+ sky130_fd_sc_hs__conb_1 
XLTIE_36 DVSS DVSS DVDD DVDD LTIE_36_HINET LTIE_36_LONET 
+ sky130_fd_sc_hs__conb_1 
XLTIE_35 DVSS DVSS DVDD DVDD LTIE_35_HINET LTIE_35_LONET 
+ sky130_fd_sc_hs__conb_1 
XLTIE_34 DVSS DVSS DVDD DVDD LTIE_34_HINET LTIE_34_LONET 
+ sky130_fd_sc_hs__conb_1 
XLTIE_33 DVSS DVSS DVDD DVDD LTIE_33_HINET LTIE_33_LONET 
+ sky130_fd_sc_hs__conb_1 
XLTIE_32 DVSS DVSS DVDD DVDD LTIE_32_HINET LTIE_32_LONET 
+ sky130_fd_sc_hs__conb_1 
XLTIE_31 DVSS DVSS DVDD DVDD 1038 LTIE_31_LONET sky130_fd_sc_hs__conb_1 
XLTIE_30 DVSS DVSS DVDD DVDD LTIE_30_HINET LTIE_30_LONET 
+ sky130_fd_sc_hs__conb_1 
XLTIE_29 DVSS DVSS DVDD DVDD LTIE_29_HINET LTIE_29_LONET 
+ sky130_fd_sc_hs__conb_1 
XLTIE_28 DVSS DVSS DVDD DVDD LTIE_28_HINET LTIE_28_LONET 
+ sky130_fd_sc_hs__conb_1 
XLTIE_27 DVSS DVSS DVDD DVDD LTIE_27_HINET LTIE_27_LONET 
+ sky130_fd_sc_hs__conb_1 
XLTIE_26 DVSS DVSS DVDD DVDD 1039 LTIE_26_LONET sky130_fd_sc_hs__conb_1 
XLTIE_25 DVSS DVSS DVDD DVDD LTIE_25_HINET LTIE_25_LONET 
+ sky130_fd_sc_hs__conb_1 
XLTIE_24 DVSS DVSS DVDD DVDD LTIE_24_HINET LTIE_24_LONET 
+ sky130_fd_sc_hs__conb_1 
XLTIE_23 DVSS DVSS DVDD DVDD 1040 LTIE_23_LONET sky130_fd_sc_hs__conb_1 
XLTIE_22 DVSS DVSS DVDD DVDD 1041 LTIE_22_LONET sky130_fd_sc_hs__conb_1 
XLTIE_21 DVSS DVSS DVDD DVDD LTIE_21_HINET LTIE_21_LONET 
+ sky130_fd_sc_hs__conb_1 
XLTIE_20 DVSS DVSS DVDD DVDD LTIE_20_HINET LTIE_20_LONET 
+ sky130_fd_sc_hs__conb_1 
XLTIE_19 DVSS DVSS DVDD DVDD LTIE_19_HINET LTIE_19_LONET 
+ sky130_fd_sc_hs__conb_1 
XLTIE_18 DVSS DVSS DVDD DVDD 1042 LTIE_18_LONET sky130_fd_sc_hs__conb_1 
XLTIE_17 DVSS DVSS DVDD DVDD LTIE_17_HINET LTIE_17_LONET 
+ sky130_fd_sc_hs__conb_1 
XLTIE_16 DVSS DVSS DVDD DVDD 1043 LTIE_16_LONET sky130_fd_sc_hs__conb_1 
XLTIE_15 DVSS DVSS DVDD DVDD LTIE_15_HINET LTIE_15_LONET 
+ sky130_fd_sc_hs__conb_1 
XLTIE_14 DVSS DVSS DVDD DVDD LTIE_14_HINET LTIE_14_LONET 
+ sky130_fd_sc_hs__conb_1 
XLTIE_13 DVSS DVSS DVDD DVDD LTIE_13_HINET LTIE_13_LONET 
+ sky130_fd_sc_hs__conb_1 
XLTIE_12 DVSS DVSS DVDD DVDD LTIE_12_HINET LTIE_12_LONET 
+ sky130_fd_sc_hs__conb_1 
XLTIE_11 DVSS DVSS DVDD DVDD LTIE_11_HINET LTIE_11_LONET 
+ sky130_fd_sc_hs__conb_1 
XLTIE_10 DVSS DVSS DVDD DVDD LTIE_10_HINET LTIE_10_LONET 
+ sky130_fd_sc_hs__conb_1 
XLTIE_9 DVSS DVSS DVDD DVDD 1044 LTIE_9_LONET sky130_fd_sc_hs__conb_1 
XLTIE_8 DVSS DVSS DVDD DVDD LTIE_8_HINET LTIE_8_LONET sky130_fd_sc_hs__conb_1 
XLTIE_7 DVSS DVSS DVDD DVDD LTIE_7_HINET LTIE_7_LONET sky130_fd_sc_hs__conb_1 
XLTIE_6 DVSS DVSS DVDD DVDD LTIE_6_HINET LTIE_6_LONET sky130_fd_sc_hs__conb_1 
XLTIE_5 DVSS DVSS DVDD DVDD LTIE_5_HINET LTIE_5_LONET sky130_fd_sc_hs__conb_1 
XLTIE_4 DVSS DVSS DVDD DVDD LTIE_4_HINET LTIE_4_LONET sky130_fd_sc_hs__conb_1 
XLTIE_3 DVSS DVSS DVDD DVDD LTIE_3_HINET LTIE_3_LONET sky130_fd_sc_hs__conb_1 
XLTIE_2 DVSS DVSS DVDD DVDD LTIE_2_HINET LTIE_2_LONET sky130_fd_sc_hs__conb_1 
XLTIE_1 DVSS DVSS DVDD DVDD LTIE_1_HINET LTIE_1_LONET sky130_fd_sc_hs__conb_1 
XLTIE DVSS DVSS DVDD DVDD LTIE_HINET LTIE_LONET sky130_fd_sc_hs__conb_1 
XFE_OFC370_N259 FE_OFN38_N259 DVSS DVSS DVDD DVDD FE_OFN370_N259 
+ sky130_fd_sc_hs__buf_2 
XFE_OFC363_N288 FE_OFN16_N288 DVSS DVSS DVDD DVDD FE_OFN363_N288 
+ sky130_fd_sc_hs__buf_2 
XFE_OFC361_N289 N289 DVSS DVSS DVDD DVDD FE_OFN361_N289 sky130_fd_sc_hs__buf_2 
XFE_OFC358_N452 FE_OFN42_N452 DVSS DVSS DVDD DVDD FE_OFN358_N452 
+ sky130_fd_sc_hs__buf_2 
XFE_OFC357_n150 n150 DVSS DVSS DVDD DVDD FE_OFN357_n150 sky130_fd_sc_hs__buf_2 
XFE_OFC356_N270 N270 DVSS DVSS DVDD DVDD FE_OFN356_N270 sky130_fd_sc_hs__buf_2 
XFE_OFC355_N273 FE_OFN39_N273 DVSS DVSS DVDD DVDD FE_OFN355_N273 
+ sky130_fd_sc_hs__buf_2 
XFE_OFC354_N454 N454 DVSS DVSS DVDD DVDD FE_OFN354_N454 sky130_fd_sc_hs__buf_2 
XFE_OFC353_n128 FE_OFN155_n128 DVSS DVSS DVDD DVDD FE_OFN353_n 
+ sky130_fd_sc_hs__clkbuf_4 
XFE_OFC352_N456 N456 DVSS DVSS DVDD DVDD FE_OFN352_N456 sky130_fd_sc_hs__buf_2 
XFE_OFC349_N281 FE_OFN32_N281 DVSS DVSS DVDD DVDD FE_OFN349_N281 
+ sky130_fd_sc_hs__buf_2 
XFE_OFC348_N478 N478 DVSS DVSS DVDD DVDD FE_OFN348_N478 sky130_fd_sc_hs__buf_2 
XFE_OFC347_FE_MDBN0 FE_MDBN0_ DVSS DVSS DVDD DVDD FE_OFN347_FE_MDBN0 
+ sky130_fd_sc_hs__buf_2 
XFE_OFC346_N274 N274 DVSS DVSS DVDD DVDD FE_OFN346_N274 sky130_fd_sc_hs__buf_2 
XFE_OFC345_N468 N468 DVSS DVSS DVDD DVDD FE_OFN345_N468 sky130_fd_sc_hs__buf_2 
XFE_OFC344_N460 N460 DVSS DVSS DVDD DVDD FE_OFN344_N460 sky130_fd_sc_hs__buf_2 
XFE_OFC343_N275 N275 DVSS DVSS DVDD DVDD FE_OFN343_N275 sky130_fd_sc_hs__buf_2 
XFE_OFC342_N465 N465 DVSS DVSS DVDD DVDD FE_OFN342_N465 sky130_fd_sc_hs__buf_2 
XFE_OFC341_N470 FE_OFN19_N470 DVSS DVSS DVDD DVDD FE_OFN341_N470 
+ sky130_fd_sc_hs__buf_2 
XFE_OFC339_FE_OFN101_manual_control_osc_3 FE_OFN101_manual_control_osc_3 DVSS 
+ DVSS DVDD DVDD FE_OFN339_FE_OFN101_manual_control_osc_3 
+ sky130_fd_sc_hs__clkbuf_4 
XFE_OFC338_N463 FE_OFN26_N463 DVSS DVSS DVDD DVDD FE_OFN338_N463 
+ sky130_fd_sc_hs__buf_2 
XFE_OFC336_CTL_N_4 CTL_N[4] DVSS DVSS DVDD DVDD FE_OFN336_CTL_N_4 
+ sky130_fd_sc_hs__buf_2 
XFE_OFC335_manual_control_osc_2 manual_control_osc[2] DVSS DVSS DVDD DVDD 
+ FE_OFN335_manual_control_osc_2 sky130_fd_sc_hs__clkbuf_4 
XFE_OFC334_CTL_P_17 CTL_P[17] DVSS DVSS DVDD DVDD FE_OFN334_CTL_P_17 
+ sky130_fd_sc_hs__buf_2 
XFE_OFC333_FE_OFN124_pi2_con_0 FE_OFN124_pi2_con_0 DVSS DVSS DVDD DVDD 
+ FE_OFN333_FE_OFN124_pi2_con_0 sky130_fd_sc_hs__clkbuf_8 
XFE_OFC332_manual_control_osc_10 manual_control_osc[10] DVSS DVSS DVDD DVDD 
+ FE_OFN332_manual_control_osc_10 sky130_fd_sc_hs__clkbuf_4 
XFE_OFC331_N479 N479 DVSS DVSS DVDD DVDD FE_OFN331_N479 sky130_fd_sc_hs__buf_2 
XFE_OFC330_CTL_P_19 CTL_P[19] DVSS DVSS DVDD DVDD FE_OFN330_CTL_P_19 
+ sky130_fd_sc_hs__buf_2 
XFE_OFC329_manual_control_osc_11 manual_control_osc[11] DVSS DVSS DVDD DVDD 
+ FE_OFN329_manual_control_osc_11 sky130_fd_sc_hs__buf_2 
XFE_OFC326_FE_OFN13_inj_error FE_OFN13_inj_error DVSS DVSS DVDD DVDD 
+ FE_OFN326_FE_OFN13_inj_error sky130_fd_sc_hs__clkbuf_4 
XFE_OFC325_CTL_N_5 CTL_N[5] DVSS DVSS DVDD DVDD FE_OFN325_CTL_N_5 
+ sky130_fd_sc_hs__buf_2 
XFE_OFC324_N474 N474 DVSS DVSS DVDD DVDD FE_OFN324_N474 sky130_fd_sc_hs__buf_2 
XFE_OFC323_CTL_N_14 CTL_N[14] DVSS DVSS DVDD DVDD FE_OFN323_CTL_N_14 
+ sky130_fd_sc_hs__buf_2 
XFE_OFC322_CTL_P_35 CTL_P[35] DVSS DVSS DVDD DVDD FE_OFN322_CTL_P_35 
+ sky130_fd_sc_hs__buf_2 
XFE_OFC321_CTL_BUF_P_1 CTL_BUF_P[1] DVSS DVSS DVDD DVDD FE_OFN321_CTL_BUF_P_1 
+ sky130_fd_sc_hs__clkbuf_4 
XFE_OFC320_CTL_P_39 CTL_P[39] DVSS DVSS DVDD DVDD FE_OFN320_CTL_P_39 
+ sky130_fd_sc_hs__buf_2 
XFE_OFC318_CTL_P_34 CTL_P[34] DVSS DVSS DVDD DVDD FE_OFN318_CTL_P_34 
+ sky130_fd_sc_hs__buf_2 
XFE_OFC317_CTL_N_35 CTL_N[35] DVSS DVSS DVDD DVDD FE_OFN317_CTL_N_35 
+ sky130_fd_sc_hs__buf_2 
XFE_OFC316_CTL_P_33 CTL_P[33] DVSS DVSS DVDD DVDD FE_OFN316_CTL_P_33 
+ sky130_fd_sc_hs__buf_2 
XFE_OFC315_CTL_BUF_P_3 CTL_BUF_P[3] DVSS DVSS DVDD DVDD FE_OFN315_CTL_BUF_P_3 
+ sky130_fd_sc_hs__clkbuf_4 
XFE_OFC311_N251 N251 DVSS DVSS DVDD DVDD FE_OFN311_N251 sky130_fd_sc_hs__buf_2 
XFE_OFC310_pi3_con_2 pi3_con[2] DVSS DVSS DVDD DVDD FE_OFN310_pi3_con_2 
+ sky130_fd_sc_hs__clkbuf_4 
XFE_OFC308_N276 FE_OFN22_N276 DVSS DVSS DVDD DVDD FE_OFN308_N276 
+ sky130_fd_sc_hs__buf_2 
XFE_OFC307_N461 N461 DVSS DVSS DVDD DVDD FE_OFN307_N461 
+ sky130_fd_sc_hs__clkbuf_4 
XFE_OFC305_CTL_N_6 CTL_N[6] DVSS DVSS DVDD DVDD FE_OFN305_CTL_N_6 
+ sky130_fd_sc_hs__buf_2 
XFE_OFC304_CTL_N_0 CTL_N[0] DVSS DVSS DVDD DVDD FE_OFN304_CTL_N_0 
+ sky130_fd_sc_hs__buf_2 
XFE_OFC302_manual_control_osc_8 manual_control_osc[8] DVSS DVSS DVDD DVDD 
+ FE_OFN302_manual_control_osc_8 sky130_fd_sc_hs__buf_2 
XFE_OFC301_manual_control_osc_9 manual_control_osc[9] DVSS DVSS DVDD DVDD 
+ FE_OFN301_manual_control_osc_9 sky130_fd_sc_hs__clkbuf_4 
XFE_OFC300_pi5_con_1 pi5_con[1] DVSS DVSS DVDD DVDD FE_OFN300_pi5_con_1 
+ sky130_fd_sc_hs__clkbuf_4 
XFE_OFC299_CTL_BUF_N_1 CTL_BUF_N[1] DVSS DVSS DVDD DVDD FE_OFN299_CTL_BUF_N_1 
+ sky130_fd_sc_hs__clkbuf_8 
XFE_OFC298_CTL_BUF_N_3 CTL_BUF_N[3] DVSS DVSS DVDD DVDD FE_OFN298_CTL_BUF_N_3 
+ sky130_fd_sc_hs__clkbuf_8 
XFE_OFC297_CTL_BUF_P_0 CTL_BUF_P[0] DVSS DVSS DVDD DVDD FE_OFN297_CTL_BUF_P_0 
+ sky130_fd_sc_hs__clkbuf_4 
XFE_OFC296_pi5_con_3 pi5_con[3] DVSS DVSS DVDD DVDD FE_OFN296_pi5_con_3 
+ sky130_fd_sc_hs__clkbuf_4 
XFE_OFC295_fftl_en fftl_en DVSS DVSS DVDD DVDD FE_OFN295_fftl_en 
+ sky130_fd_sc_hs__clkbuf_4 
XFE_OFC294_CTL_BUF_N_4 CTL_BUF_N[4] DVSS DVSS DVDD DVDD FE_OFN294_CTL_BUF_N_4 
+ sky130_fd_sc_hs__clkbuf_4 
XFE_OFC293_CTL_BUF_N_0 CTL_BUF_N[0] DVSS DVSS DVDD DVDD FE_OFN293_CTL_BUF_N_0 
+ sky130_fd_sc_hs__clkbuf_8 
XFE_OFC292_N476 N476 DVSS DVSS DVDD DVDD FE_OFN292_N476 sky130_fd_sc_hs__buf_2 
XFE_OFC291_rst rst DVSS DVSS DVDD DVDD FE_OFN291_rst sky130_fd_sc_hs__clkbuf_8 
XFE_OFC290_N277 FE_OFN17_N277 DVSS DVSS DVDD DVDD FE_OFN290_N277 
+ sky130_fd_sc_hs__buf_2 
XFE_OFC287_N464 N464 DVSS DVSS DVDD DVDD FE_OFN287_N464 sky130_fd_sc_hs__buf_2 
XFE_OFC286_N255 FE_OFN28_N255 DVSS DVSS DVDD DVDD FE_OFN286_N255 
+ sky130_fd_sc_hs__buf_2 
XFE_OFC285_pi5_con_2 pi5_con[2] DVSS DVSS DVDD DVDD FE_OFN285_pi5_con_2 
+ sky130_fd_sc_hs__clkbuf_4 
XFE_OFC284_manual_control_osc_12 manual_control_osc[12] DVSS DVSS DVDD DVDD 
+ FE_OFN284_manual_control_osc_12 sky130_fd_sc_hs__clkbuf_4 
XFE_OFC283_CTL_BUF_P_5 CTL_BUF_P[5] DVSS DVSS DVDD DVDD FE_OFN283_CTL_BUF_P_5 
+ sky130_fd_sc_hs__clkbuf_4 
XFE_OFC282_CTL_BUF_N_2 CTL_BUF_N[2] DVSS DVSS DVDD DVDD FE_OFN282_CTL_BUF_N_2 
+ sky130_fd_sc_hs__clkbuf_4 
XFE_OFC281_manual_control_osc_7 manual_control_osc[7] DVSS DVSS DVDD DVDD 
+ FE_OFN281_manual_control_osc_7 sky130_fd_sc_hs__clkbuf_4 
XFE_OFC280_CTL_BUF_N_5 CTL_BUF_N[5] DVSS DVSS DVDD DVDD FE_OFN280_CTL_BUF_N_5 
+ sky130_fd_sc_hs__clkbuf_4 
XFE_OFC279_pi3_con_3 pi3_con[3] DVSS DVSS DVDD DVDD FE_OFN279_pi3_con_3 
+ sky130_fd_sc_hs__clkbuf_4 
XFE_OFC275_pi1_con_1 pi1_con[1] DVSS DVSS DVDD DVDD FE_OFN275_pi1_con_1 
+ sky130_fd_sc_hs__clkbuf_4 
XFE_OFC274_manual_control_osc_4 manual_control_osc[4] DVSS DVSS DVDD DVDD 
+ FE_OFN274_manual_control_osc_4 sky130_fd_sc_hs__clkbuf_4 
XFE_OFC269_FE_MDBN0 FE_OFN347_FE_MDBN0 DVSS DVSS DVDD DVDD FE_OFN269_FE_MDBN0 
+ sky130_fd_sc_hs__buf_2 
XFE_RC_10_0 FE_OFN307_N461 DVSS DVSS DVDD DVDD n2640 sky130_fd_sc_hs__inv_4 
XFE_RC_9_0 N283 DVSS DVSS DVDD DVDD FE_OFN214_N283 sky130_fd_sc_hs__clkbuf_2 
XFE_RC_8_0 FE_OFN21_N274 DVSS DVSS DVDD DVDD n151 sky130_fd_sc_hs__inv_4 
XFE_RC_7_0 FE_OFN347_FE_MDBN0 DVSS DVSS DVDD DVDD test_mux_clk_I 
+ sky130_fd_sc_hs__clkinv_2 
XFE_RC_6_0 n77 n76 DVSS DVSS DVDD DVDD FE_DBTN0_ibuf_inp_buf_0 
+ sky130_fd_sc_hs__nand2_2 
XFE_RC_5_0 test_buf_in_0 DVSS DVSS DVDD DVDD FE_OFN182_test_mux_misc 
+ sky130_fd_sc_hs__inv_4 
XFE_RC_1_0 ibuf_inn_buf_0 DVSS DVSS DVDD DVDD FE_OFN155_n128 
+ sky130_fd_sc_hs__inv_4 
XFE_OFC267_ck_QB ck_QB DVSS DVSS DVDD DVDD FE_OFN267_ck_QB 
+ sky130_fd_sc_hs__clkbuf_16 
XFE_OFC266_N446 FE_OFN36_N446 DVSS DVSS DVDD DVDD FE_OFN266_N446 
+ sky130_fd_sc_hs__clkbuf_2 
XFE_OFC265_N448 N448 DVSS DVSS DVDD DVDD FE_OFN265_N448 
+ sky130_fd_sc_hs__clkbuf_2 
XFE_OFC264_N447 N447 DVSS DVSS DVDD DVDD FE_OFN264_N447 
+ sky130_fd_sc_hs__clkbuf_2 
XFE_OFC258_N451 N451 DVSS DVSS DVDD DVDD FE_OFN258_N451 
+ sky130_fd_sc_hs__clkbuf_2 
XFE_OFC252_N252 N252 DVSS DVSS DVDD DVDD FE_OFN252_N252 
+ sky130_fd_sc_hs__clkbuf_2 
XFE_OFC250_N471 N471 DVSS DVSS DVDD DVDD FE_OFN250_N471 
+ sky130_fd_sc_hs__clkbuf_2 
XFE_OFC249_N459 FE_OFN30_N459 DVSS DVSS DVDD DVDD FE_OFN249_N459 
+ sky130_fd_sc_hs__clkbuf_2 
XFE_OFC244_N268 N268 DVSS DVSS DVDD DVDD FE_OFN244_N268 
+ sky130_fd_sc_hs__clkbuf_2 
XFE_OFC242_N260 FE_OFN18_N260 DVSS DVSS DVDD DVDD FE_OFN242_N260 
+ sky130_fd_sc_hs__clkbuf_2 
XFE_OFC240_N256 N256 DVSS DVSS DVDD DVDD FE_OFN240_N256 
+ sky130_fd_sc_hs__clkbuf_2 
XFE_OFC239_N254 N254 DVSS DVSS DVDD DVDD FE_OFN239_N254 
+ sky130_fd_sc_hs__clkbuf_2 
XFE_OFC238_n113 FE_OFN236_n113 DVSS DVSS DVDD DVDD FE_OFN238_n113 
+ sky130_fd_sc_hs__clkbuf_2 
XFE_OFC237_n113 FE_OFN236_n113 DVSS DVSS DVDD DVDD FE_OFN237_n113 
+ sky130_fd_sc_hs__clkbuf_16 
XFE_OFC236_n113 n113 DVSS DVSS DVDD DVDD FE_OFN236_n113 
+ sky130_fd_sc_hs__clkbuf_8 
XFE_OFC235_N482 N482 DVSS DVSS DVDD DVDD FE_OFN235_N482 
+ sky130_fd_sc_hs__clkbuf_2 
XFE_OFC231_N475 N475 DVSS DVSS DVDD DVDD FE_OFN231_N475 
+ sky130_fd_sc_hs__clkbuf_2 
XFE_OFC230_N473 N473 DVSS DVSS DVDD DVDD FE_OFN230_N473 
+ sky130_fd_sc_hs__clkbuf_2 
XFE_OFC224_N272 N272 DVSS DVSS DVDD DVDD FE_OFN224_N272 
+ sky130_fd_sc_hs__clkbuf_2 
XFE_OFC222_N265 N265 DVSS DVSS DVDD DVDD FE_OFN222_N265 
+ sky130_fd_sc_hs__clkbuf_2 
XFE_OFC221_N264 N264 DVSS DVSS DVDD DVDD FE_OFN221_N264 
+ sky130_fd_sc_hs__clkbuf_2 
XFE_OFC220_N262 N262 DVSS DVSS DVDD DVDD FE_OFN220_N262 
+ sky130_fd_sc_hs__clkbuf_2 
XFE_OFC219_n119 FE_OFN218_n119 DVSS DVSS DVDD DVDD FE_OFN219_n119 
+ sky130_fd_sc_hs__clkbuf_16 
XFE_OFC218_n119 n119 DVSS DVSS DVDD DVDD FE_OFN218_n119 
+ sky130_fd_sc_hs__clkbuf_16 
XFE_OFC217_N483 N483 DVSS DVSS DVDD DVDD FE_OFN217_N483 
+ sky130_fd_sc_hs__clkbuf_2 
XFE_OFC216_N481 N481 DVSS DVSS DVDD DVDD FE_OFN216_N481 
+ sky130_fd_sc_hs__clkbuf_2 
XFE_OFC215_N477 N477 DVSS DVSS DVDD DVDD FE_OFN215_N477 
+ sky130_fd_sc_hs__clkbuf_4 
XFE_OFC212_N280 FE_OFN20_N280 DVSS DVSS DVDD DVDD FE_OFN212_N280 
+ sky130_fd_sc_hs__clkbuf_2 
XFE_OFC211_N278 N278 DVSS DVSS DVDD DVDD FE_OFN211_N278 
+ sky130_fd_sc_hs__clkbuf_2 
XFE_OFC209_n2610 n2610 DVSS DVSS DVDD DVDD FE_OFN209_n2610 
+ sky130_fd_sc_hs__buf_2 
XFE_OFC208_N462 N462 DVSS DVSS DVDD DVDD FE_OFN208_N462 
+ sky130_fd_sc_hs__clkbuf_2 
XFE_OFC207_N287 N287 DVSS DVSS DVDD DVDD FE_OFN207_N287 
+ sky130_fd_sc_hs__clkbuf_2 
XFE_OFC205_N284 FE_OFN43_N284 DVSS DVSS DVDD DVDD FE_OFN205_N284 
+ sky130_fd_sc_hs__clkbuf_2 
XFE_OFC204_n130 FE_OFN202_n130 DVSS DVSS DVDD DVDD FE_OFN204_n130 
+ sky130_fd_sc_hs__clkbuf_16 
XFE_OFC203_n130 FE_OFN202_n130 DVSS DVSS DVDD DVDD FE_OFN203_n130 
+ sky130_fd_sc_hs__buf_8 
XFE_OFC202_n130 FE_DBTN0_ibuf_inp_buf_0 DVSS DVSS DVDD DVDD FE_OFN202_n130 
+ sky130_fd_sc_hs__clkbuf_16 
XFE_OFC195_N282 N282 DVSS DVSS DVDD DVDD FE_OFN195_N282 
+ sky130_fd_sc_hs__clkbuf_4 
XFE_OFC194_n2670 n2670 DVSS DVSS DVDD DVDD FE_OFN194_n2670 
+ sky130_fd_sc_hs__clkbuf_8 
XFE_OFC193_n163 n163 DVSS DVSS DVDD DVDD FE_OFN193_n163 
+ sky130_fd_sc_hs__clkbuf_8 
XFE_OFC192_n154 n154 DVSS DVSS DVDD DVDD FE_OFN192_n154 
+ sky130_fd_sc_hs__clkbuf_16 
XFE_OFC191_n147 n147 DVSS DVSS DVDD DVDD FE_OFN191_n147 
+ sky130_fd_sc_hs__clkbuf_8 
XFE_OFC190_n138 n138 DVSS DVSS DVDD DVDD FE_OFN190_n138 
+ sky130_fd_sc_hs__clkbuf_8 
XFE_OFC188_N467 N467 DVSS DVSS DVDD DVDD FE_OFN188_N467 
+ sky130_fd_sc_hs__clkbuf_2 
XFE_OFC187_N465 FE_OFN342_N465 DVSS DVSS DVDD DVDD FE_OFN187_N465 
+ sky130_fd_sc_hs__clkbuf_2 
XFE_OFC182_test_mux_misc FE_OFN182_test_mux_misc DVSS DVSS DVDD DVDD 
+ test_mux_misc sky130_fd_sc_hs__clkbuf_16 
XFE_OFC180_n162 n162 DVSS DVSS DVDD DVDD FE_OFN180_n162 
+ sky130_fd_sc_hs__clkbuf_4 
XFE_OFC179_n152 n152 DVSS DVSS DVDD DVDD FE_OFN179_n152 
+ sky130_fd_sc_hs__clkbuf_16 
XFE_OFC178_n150 FE_OFN357_n150 DVSS DVSS DVDD DVDD FE_OFN178_n150 
+ sky130_fd_sc_hs__clkbuf_8 
XFE_OFC177_n146 n146 DVSS DVSS DVDD DVDD FE_OFN177_n146 
+ sky130_fd_sc_hs__clkbuf_2 
XFE_OFC176_n136 FE_OFN175_n136 DVSS DVSS DVDD DVDD FE_OFN176_n136 
+ sky130_fd_sc_hs__clkbuf_4 
XFE_OFC175_n136 n136 DVSS DVSS DVDD DVDD FE_OFN175_n136 
+ sky130_fd_sc_hs__clkbuf_8 
XFE_OFC174_n134 n134 DVSS DVSS DVDD DVDD FE_OFN174_n134 sky130_fd_sc_hs__buf_8 
XFE_OFC173_ck_IB ck_IB DVSS DVSS DVDD DVDD FE_OFN173_ck_IB 
+ sky130_fd_sc_hs__clkbuf_16 
XFE_OFC170_ck_Q ck_Q DVSS DVSS DVDD DVDD FE_OFN170_ck_Q 
+ sky130_fd_sc_hs__clkbuf_8 
XFE_OFC166_n160 n160 DVSS DVSS DVDD DVDD FE_OFN166_n160 
+ sky130_fd_sc_hs__clkbuf_8 
XFE_OFC165_n159 n159 DVSS DVSS DVDD DVDD FE_OFN165_n159 
+ sky130_fd_sc_hs__clkbuf_4 
XFE_OFC164_n159 n159 DVSS DVSS DVDD DVDD FE_OFN164_n159 
+ sky130_fd_sc_hs__clkbuf_2 